# generated using pymatgen
data_Li2CO3
_symmetry_space_group_name_H-M   C2/c
_cell_length_a   8.28221965
_cell_length_b   4.96902479
_cell_length_c   6.07631725
_cell_angle_alpha   90.00000000
_cell_angle_beta   113.74593345
_cell_angle_gamma   90.00000000
_symmetry_Int_Tables_number   15
_chemical_formula_structural   Li2CO3
_chemical_formula_sum   'Li8 C4 O12'
_cell_volume   228.89737819
_cell_formula_units_Z   4
loop_
 _symmetry_equiv_pos_site_id
 _symmetry_equiv_pos_as_xyz
  1  'x, y, z'
  2  '-x, -y, -z'
  3  '-x, y, -z+1/2'
  4  'x, -y, z+1/2'
  5  'x+1/2, y+1/2, z'
  6  '-x+1/2, -y+1/2, -z'
  7  '-x+1/2, y+1/2, -z+1/2'
  8  'x+1/2, -y+1/2, z+1/2'
loop_
 _atom_type_symbol
 _atom_type_oxidation_number
  Li+  1.0
  C4+  4.0
  O2-  -2.0
loop_
 _atom_site_type_symbol
 _atom_site_label
 _atom_site_symmetry_multiplicity
 _atom_site_fract_x
 _atom_site_fract_y
 _atom_site_fract_z
 _atom_site_occupancy
  Li+  Li0  8  0.19639168  0.44656424  0.83739024  1
  C4+  C1  4  0.00000000  0.06619574  0.25000000  1
  O2-  O2  8  0.14745362  0.06495296  0.81423924  1
  O2-  O3  4  0.00000000  0.32319230  0.25000000  1
