6
Lattice="4.1801 0.0 0.0 0.0 4.1801 0.0 0.0 0.0 2.6678" Properties=species:S:1:pos:R:3:tags:I:1 spacegroup="P 42/m n m" unit_cell=conventional pbc="T T T"
Si       0.00000000       0.00000000       0.00000000        0
Si       2.09005000       2.09005000       1.33390000        0
O       1.28203667       1.28203667       0.00000000        1
O       2.89806333       2.89806333       0.00000000        1
O       3.37208667       0.80801333       1.33390000        1
O       0.80801333       3.37208667       1.33390000        1
